10
0 1 C4H6
C                     1.737481914313     0.607778598995    -0.000002687616
C                     0.411392619205     0.607778598744    -0.000024864058
C                    -0.411392619205    -0.607778598744    -0.000024864058
C                    -1.737481914313    -0.607778598995    -0.000002687616
H                     2.299784729767     1.523786893478     0.000161802142
H                     2.304128867124    -0.307780808965    -0.000031788561
H                    -0.119820385940     1.546017832380     0.000198039472
H                     0.119820385940    -1.546017832380     0.000198039472
H                    -2.299784729767    -1.523786893478     0.000161802142
H                    -2.304128867124     0.307780808965    -0.000031788561
