10

 C    1.040431435350    0.255352281439   -0.647655565168
 C    0.689686462045    0.000000000000    0.708019928462
 C   -0.689686462045    0.000000000000    0.708019928462
 C   -1.040431435350   -0.255352281439   -0.647655565168
 H    1.923950242055   -0.184700364387   -1.124107919261
 H    0.710818050384    1.180199218776   -1.109052315525
 H    1.381964524496   -0.239276034815    1.514412102552
 H   -1.381964524496    0.239276034815    1.514412102552
 H   -1.923950242055    0.184700364387   -1.124107919261
 H   -0.710818050384   -1.180199218776   -1.109052315525
