10

 C    1.040337783815   -0.255068430087   -0.647638333046
 C    0.689616083144    0.000000000000    0.707959702407
 C   -0.689616083144    0.000000000000    0.707959702407
 C   -1.040337783815    0.255068430087   -0.647638333046
 H    0.710927536658   -1.180090791714   -1.108840866360
 H    1.923781895901    0.185070022392   -1.124118659083
 H    1.381709657201    0.238641182508    1.514723314614
 H   -1.381709657201   -0.238641182508    1.514723314614
 H   -0.710927536658    1.180090791714   -1.108840866360
 H   -1.923781895901   -0.185070022392   -1.124118659083
